Circuit: * C:\Users\40733\Downloads\Lab8_9_Instrumentatie_LTspice\Lab8_9_Instrumentatie_LTspice\AI_3AO_V-V\AI_3AO_trans.asc

Vid2: Removing PWL point (0.86,0)
Vid2: Removing PWL point (1.72,0)
Vid2: Removing PWL point (2.58,0)
Vid2: Removing PWL point (3.44,0)
Direct Newton iteration failed to find .op point.  (Use ".option noopiter" to skip.)
Starting Gmin stepping
Gmin = 10
Gmin = 1.07374
Gmin = 0.115292
Gmin = 0.0123794
Gmin = 0.00132923
Gmin = 0.000142725
Gmin = 1.5325e-005
Gmin = 1.6455e-006
Gmin = 1.76685e-007
vernier = 0.5
vernier = 0.25
vernier = 0.125
vernier = 0.0625
vernier = 0.03125
vernier = 0.015625
vernier = 0.0078125
vernier = 0.00390625
Gmin = 1.41348e-007
vernier = 0.00195313
vernier = 0.000976563
vernier = 0.000488281
Gmin = 0
Gmin stepping failed

Starting source stepping with srcstepmethod=0
Source Step = 3.0303%
vernier = 0.25
Source Step = 3.97727%
Source Step = 5.87121%
Source Step = 7.76515%
Source Step = 9.65909%
Source Step = 11.553%
vernier = 0.09375
Source Step = 13.8258%
Source Step = 16.6667%
Source Step = 19.5076%
Source Step = 22.3485%
Source Step = 25.1894%
Source Step = 26.3391%
Source Step = 26.3835%
Source Step = 26.4279%
Source Step = 26.4722%
Source Step = 26.5166%
vernier = 0.00219727
Source Step = 26.5655%
Source Step = 26.632%
Source Step = 26.6986%
Source Step = 26.7652%
Source Step = 26.8318%
vernier = 0.0032959
Source Step = 26.9017%
Source Step = 27.0016%
Source Step = 27.1015%
Source Step = 27.2013%
Source Step = 27.3012%
Source Step = 27.4011%
vernier = 0.00494385
Source Step = 27.5509%
Source Step = 27.7007%
Source Step = 27.8505%
Source Step = 28.0003%
Source Step = 28.1502%
vernier = 0.00741577
Source Step = 28.3674%
Source Step = 28.5921%
Source Step = 28.8168%
Source Step = 29.0415%
Source Step = 29.2663%
vernier = 0.0111237
Source Step = 29.5809%
Source Step = 29.918%
Source Step = 30.255%
Source Step = 30.5921%
Source Step = 30.9292%
vernier = 0.0166855
Source Step = 31.3843%
Source Step = 31.8899%
Source Step = 32.3955%
Source Step = 32.9011%
Source Step = 33.4067%
vernier = 0.0250282
Source Step = 34.064%
Source Step = 34.8225%
Source Step = 35.5809%
Source Step = 36.3393%
Source Step = 37.0978%
vernier = 0.0375423
Source Step = 38.0458%
Source Step = 39.1835%
Source Step = 40.3211%
Source Step = 41.4587%
Source Step = 42.5964%
vernier = 0.0563135
Source Step = 43.9616%
Source Step = 45.668%
Source Step = 47.3745%
Source Step = 49.081%
Source Step = 50.7875%
vernier = 0.0844703
Source Step = 52.7499%
Source Step = 55.3096%
Source Step = 57.8693%
Source Step = 60.429%
Source Step = 62.9887%
vernier = 0.126705
Source Step = 65.8044%
Source Step = 69.6439%
Source Step = 73.4835%
Source Step = 77.3231%
Source Step = 81.1626%
vernier = 0.190058
Source Step = 85.1942%
Source Step = 90.9535%
Source Step = 96.7128%
Source stepping succeeded in finding the operating point.


Date: Sun Nov 21 11:42:21 2021
Total elapsed time: 0.664 seconds.

tnom = 27
temp = 27
method = modified trap
totiter = 19295
traniter = 14542
tranpoints = 6092
accept = 4181
rejected = 1911
matrix size = 65
fillins = 164
solver = Normal
Thread vector: 27.1/7.7[5] 3.1/1.7[5] 2.4/1.2[5] 0.2/0.7[1]  2592/500
Matrix Compiler1: 13.43 KB object code size  2.0/0.9/[0.5]
Matrix Compiler2: 9.51 KB object code size  0.6/1.0/[0.5]

