Circuit: * D:\Cursuri facultate\Proj Scia\SIAC---Project\work\Etaj 3\Etaj3.asc

Direct Newton iteration failed to find .op point.  (Use ".option noopiter" to skip.)
Starting Gmin stepping
Gmin = 10
Gmin = 1.07374
Gmin = 0.115292
Gmin = 0.0123794
Gmin = 0.00132923
Gmin = 0.000142725
Gmin = 1.5325e-05
Gmin = 1.6455e-06
Gmin = 1.76685e-07
Gmin = 1.89714e-08
Gmin = 2.03704e-09
Gmin = 2.18725e-10
Gmin = 2.34854e-11
Gmin = 2.52173e-12
Gmin = 2.70769e-13
Gmin = 0
Gmin stepping succeeded in finding the operating point.

N-Period=1
Fourier components of V(out)
DC component:0.00441897

Harmonic	Frequency	 Fourier 	Normalized	 Phase  	Normalized
 Number 	  [Hz]   	Component	 Component	[degree]	Phase [deg]
    1   	 1.060e+3	 1.666e+0	 1.000e+0	  -90.00°	    0.00°
    2   	 2.121e+3	 5.344e-5	 3.208e-5	  -26.54°	   63.45°
    3   	 3.182e+3	 5.204e-4	 3.124e-4	  -87.15°	    2.84°
    4   	 4.242e+3	 1.291e-4	 7.751e-5	    1.90°	   91.89°
    5   	 5.302e+3	 5.202e-5	 3.123e-5	   81.80°	  171.80°
    6   	 6.363e+3	 6.493e-4	 3.897e-4	  149.60°	  239.60°
    7   	 7.424e+3	 2.520e-4	 1.513e-4	   92.62°	  182.61°
    8   	 8.484e+3	 4.804e-4	 2.884e-4	  -23.36°	   66.64°
    9   	 9.544e+3	 3.264e-4	 1.959e-4	 -129.80°	  -39.80°
Partial Harmonic Distortion: 0.063396%
Total Harmonic Distortion:   0.091355%



Date: Fri Jan 10 12:04:15 2025
Total elapsed time: 2.178 seconds.

tnom = 27
temp = 27
method = modified trap
totiter = 80501
traniter = 80052
tranpoints = 40027
accept = 40024
rejected = 3
matrix size = 31
fillins = 18
solver = Normal
Avg thread counts: 1.1/1.1/1.1/1.1
Matrix Compiler1:     123 opcodes  0.5/[0.2]/0.2
Matrix Compiler2: 2.80 KB object code size  0.2/0.2/[0.2]

