Circuit: * D:\Teaching\Materii\Cursuri\SAIC2023\proiect\Etaj1Amplificatoare\AI_IV_2AO\AI_2AO_inv_AC.asc

Error on line 12 : vsensedif n008 0 v
	 Unknown parameter "v"
Vsensedif: Missing value, assumed 0V @ DC
Direct Newton iteration for .op point succeeded.

Date: Mon Dec 18 20:45:17 2023
Total elapsed time: 0.156 seconds.

tnom = 27
temp = 27
method = trap
totiter = 19
traniter = 0
tranpoints = 0
accept = 0
rejected = 0
matrix size = 51
fillins = 56
solver = Normal
Matrix Compiler1:     316 opcodes
Matrix Compiler2: 6.49 KB object code size
