Circuit: * D:\Teaching\Materii\Cursuri\SAIC2023\proiect\Etaj1Amplificatoare\AI_IV_2AO\AI_2AO_inv_tran.asc

Error on line 12 : vsensedif n005 0 v
	 Unknown parameter "v"
Vsensedif: Missing value, assumed 0V @ DC
Direct Newton iteration for .op point succeeded.
N-Period=1
Fourier components of V(out)
DC component:4.86906e-008

Harmonic	Frequency	 Fourier 	Normalized	 Phase  	Normalized
 Number 	  [Hz]   	Component	 Component	[degree]	Phase [deg]
    1   	1.000e+03	4.998e-03	1.000e+00	   -0.04°	    0.00°
    2   	2.000e+03	7.506e-11	1.502e-08	  -51.97°	  -51.93°
    3   	3.000e+03	9.071e-11	1.815e-08	  -40.15°	  -40.11°
    4   	4.000e+03	1.089e-10	2.179e-08	  -31.95°	  -31.91°
    5   	5.000e+03	1.285e-10	2.571e-08	  -26.07°	  -26.03°
    6   	6.000e+03	1.490e-10	2.981e-08	  -21.71°	  -21.67°
    7   	7.000e+03	1.700e-10	3.401e-08	  -18.34°	  -18.30°
    8   	8.000e+03	1.913e-10	3.828e-08	  -15.66°	  -15.62°
    9   	9.000e+03	2.129e-10	4.259e-08	  -13.45°	  -13.41°
   10   	1.000e+04	2.345e-10	4.692e-08	  -11.60°	  -11.56°
Total Harmonic Distortion: 0.000010%(0.000000%)



Date: Mon Dec 18 20:48:04 2023
Total elapsed time: 0.158 seconds.

tnom = 27
temp = 27
method = modified trap
totiter = 2123
traniter = 2104
tranpoints = 1053
accept = 1050
rejected = 3
matrix size = 29
fillins = 28
solver = Normal
Thread vector: 7.2/4.5[3] 2.2/2.9[1] 1.1/1.7[1] 0.2/0.8[1]  2592/500
Matrix Compiler1: 2.87 KB object code size  0.7/0.3/[0.2]
Matrix Compiler2: 3.47 KB object code size  0.3/0.4/[0.2]

