Circuit: * D:\Cursuri facultate\Proj Scia\SIAC---Project\work\Etaj 1\amp-neinv-comp-DC.asc

Direct Newton iteration failed to find .op point.  (Use ".option noopiter" to skip.)
Starting Gmin stepping
Gmin = 10
Gmin = 1.07374
Gmin = 0.115292
Gmin = 0.0123794
Gmin = 0.00132923
Gmin = 0.000142725
Gmin = 1.5325e-05
Gmin = 1.6455e-06
Gmin = 1.76685e-07
Gmin = 1.89714e-08
vernier = 0.5
vernier = 0.25
Gmin = 1.24538e-08
vernier = 0.333333
vernier = 0.444444
Gmin = 5.05474e-09
vernier = 0.592592
vernier = 0.790123
Gmin = 1.2463e-09
vernier = 1
Gmin = 1.58861e-10
Gmin = 1.70576e-11
Gmin = 1.83154e-12
Gmin = 1.9666e-13
Gmin = 0
Gmin stepping succeeded in finding the operating point.

N-Period=1
Fourier components of V(out)
DC component:2.20087e-06

Harmonic	Frequency	 Fourier 	Normalized	 Phase  	Normalized
 Number 	  [Hz]   	Component	 Component	[degree]	Phase [deg]
    1   	 1.060e+3	 1.179e+0	 1.000e+0	   90.02°	    0.00°
    2   	 2.121e+3	 3.518e-5	 2.985e-5	  166.42°	   76.40°
    3   	 3.182e+3	 3.808e-4	 3.230e-4	   91.61°	    1.59°
    4   	 4.242e+3	 9.017e-5	 7.649e-5	  170.41°	   80.40°
    5   	 5.302e+3	 4.124e-5	 3.499e-5	 -126.79°	 -216.81°
    6   	 6.363e+3	 4.379e-4	 3.715e-4	  -24.73°	 -114.75°
    7   	 7.424e+3	 2.098e-4	 1.780e-4	 -106.60°	 -196.62°
    8   	 8.484e+3	 3.567e-4	 3.026e-4	  153.95°	   63.93°
    9   	 9.544e+3	 1.458e-4	 1.237e-4	   59.84°	  -30.18°
Partial Harmonic Distortion: 0.062353%
Total Harmonic Distortion:   0.089229%



Date: Fri Jan 10 11:40:43 2025
Total elapsed time: 1.272 seconds.

tnom = 27
temp = 27
method = modified trap
totiter = 80751
traniter = 80056
tranpoints = 40029
accept = 40024
rejected = 5
matrix size = 18
fillins = 9
solver = Normal
Avg thread counts: 1.1/1.1/1.1/1.1
Matrix Compiler1: 1.35 KB object code size  0.3/0.2/[0.2]
Matrix Compiler2: 1.88 KB object code size  0.2/0.2/[0.1]

