Circuit: * C:\Users\andre\Projects\SCIA project\work\Etaj 1\amp-neinv-comp-DC.asc

Direct Newton iteration failed to find .op point.  (Use ".option noopiter" to skip.)
Starting Gmin stepping
Gmin = 10
Gmin = 1.07374
Gmin = 0.115292
Gmin = 0.0123794
Gmin = 0.00132923
Gmin = 0.000142725
Gmin = 1.5325e-05
Gmin = 1.6455e-06
Gmin = 1.76685e-07
Gmin = 1.89714e-08
vernier = 0.5
vernier = 0.25
Gmin = 1.24538e-08
vernier = 0.333333
vernier = 0.444444
Gmin = 5.05474e-09
vernier = 0.592592
vernier = 0.790123
Gmin = 1.2463e-09
vernier = 1
Gmin = 1.58861e-10
Gmin = 1.70576e-11
Gmin = 1.83154e-12
Gmin = 1.9666e-13
Gmin = 0
Gmin stepping succeeded in finding the operating point.

N-Period=1
Fourier components of V(out)
DC component:9.1904e-06

Harmonic	Frequency	 Fourier 	Normalized	 Phase  	Normalized
 Number 	  [Hz]   	Component	 Component	[degree]	Phase [deg]
    1   	 1.060e+3	 1.179e+0	 1.000e+0	   90.02°	    0.00°
    2   	 2.121e+3	 2.908e-4	 2.467e-4	  -94.45°	 -184.46°
    3   	 3.182e+3	 5.610e-4	 4.759e-4	  102.52°	   12.50°
    4   	 4.242e+3	 4.930e-4	 4.182e-4	   91.23°	    1.22°
    5   	 5.302e+3	 4.634e-4	 3.931e-4	  -69.91°	 -159.93°
    6   	 6.363e+3	 3.540e-4	 3.003e-4	  -93.80°	 -183.81°
    7   	 7.424e+3	 3.002e-4	 2.546e-4	  110.79°	   20.78°
    8   	 8.484e+3	 4.304e-4	 3.651e-4	  -71.57°	 -161.58°
    9   	 9.544e+3	 1.234e-5	 1.047e-5	  -65.42°	 -155.44°
Partial Harmonic Distortion: 0.095139%
Total Harmonic Distortion:   0.125731%



Date: Thu Jan  9 14:52:08 2025
Total elapsed time: 0.151 seconds.

tnom = 27
temp = 27
method = modified trap
totiter = 8769
traniter = 8074
tranpoints = 4038
accept = 4031
rejected = 7
matrix size = 18
fillins = 9
solver = Normal
Avg thread counts: 1.7/2.5/2.5/1.7
Matrix Compiler1: 1.35 KB object code size  0.4/0.2/[0.1]
Matrix Compiler2: off  [0.2]/0.2/0.2

