Circuit: * D:\Teaching\Materii\Cursuri\SAIC2023\proiect\Etaj1Amplificatoare\AI_V-I_Buffer\AI_VI_Buffer_Rout.asc

Early termination of direct N-R iteration.
Direct Newton iteration failed to find .op point.  (Use ".option noopiter" to skip.)
Starting Gmin stepping
Gmin = 10
Gmin = 1.07374
Gmin = 0.115292
Gmin = 0.0123794
Gmin = 0.00132923
Gmin = 0.000142725
Gmin = 1.5325e-005
Gmin = 1.6455e-006
Gmin = 1.76685e-007
vernier = 0.5
vernier = 0.25
vernier = 0.125
vernier = 0.0625
vernier = 0.03125
vernier = 0.015625
vernier = 0.0078125
vernier = 0.00390625
Gmin = 1.41348e-007
vernier = 0.00195313
vernier = 0.00260417
Gmin = 1.40637e-007
vernier = 0.00347222
vernier = 0.00462963
Gmin = 1.39401e-007
vernier = 0.00617283
Gmin = 1.3748e-007
vernier = 0.00823044
vernier = 0.0109739
Gmin = 1.34315e-007
vernier = 0.0146319
vernier = 0.0195092
Gmin = 1.29421e-007
vernier = 0.0260122
Gmin = 1.22085e-007
vernier = 0.034683
vernier = 0.046244
Gmin = 1.10712e-007
vernier = 0.0616586
vernier = 0.0822114
Gmin = 9.47721e-008
vernier = 0.109615
Gmin = 7.42834e-008
vernier = 0.146154
vernier = 0.194871
Gmin = 4.95159e-008
vernier = 0.259828
vernier = 0.346438
Gmin = 2.61389e-008
vernier = 0.461917
Gmin = 9.73251e-009
vernier = 0.615889
vernier = 0.821185
Gmin = 1.95289e-009
vernier = 1
Gmin = 2.25533e-010
Gmin = 2.42164e-011
Gmin = 2.60021e-012
Gmin = 2.79196e-013
Gmin = 0
Gmin stepping succeeded in finding the operating point.


rout: v(test)/i(vtest)=(181.917dB,179.912°) at 0.01


Date: Mon Dec 18 20:21:40 2023
Total elapsed time: 0.196 seconds.

tnom = 27
temp = 27
method = trap
totiter = 1564
traniter = 0
tranpoints = 0
accept = 0
rejected = 0
matrix size = 54
fillins = 131
solver = Normal
Matrix Compiler1:     693 opcodes
Matrix Compiler2: 8.91 KB object code size  0.5/1.4/[0.5]

