Circuit: * D:\Teaching\Materii\Cursuri\SAIC2023\proiect\P2\AVV-IV_singleEnded\SlewRate_I2V.asc

Direct Newton iteration for .op point succeeded.

Date: Mon Dec 18 15:40:07 2023
Total elapsed time: 0.103 seconds.

tnom = 27
temp = 27
method = modified trap
totiter = 2462
traniter = 2430
tranpoints = 1191
accept = 1147
rejected = 44
matrix size = 37
fillins = 42
solver = Normal
Matrix Compiler1: 3.78 KB object code size  0.5/0.3/[0.1]
Matrix Compiler2: off  [0.2]/0.3/0.3

