Circuit: * C:\Users\40733\Downloads\Lab8_9_Instrumentatie_LTspice\Lab8_9_Instrumentatie_LTspice\AI_reactie_pasiva_Crt\AI_Reactie_Pasiva_Crt.asc

Direct Newton iteration failed to find .op point.  (Use ".option noopiter" to skip.)
Starting Gmin stepping
Gmin = 10
Gmin = 1.07374
Gmin = 0.115292
Gmin = 0.0123794
Gmin = 0.00132923
Gmin = 0.000142725
Gmin = 1.5325e-005
Gmin = 1.6455e-006
Gmin = 1.76685e-007
vernier = 0.5
vernier = 0.25
Gmin = 7.12293e-008
vernier = 0.125
vernier = 0.0625
vernier = 0.0833333
Gmin = 6.72064e-008
vernier = 0.111111
Gmin = 5.25045e-008
vernier = 0.148148
vernier = 0.197531
Gmin = 3.48093e-008
vernier = 0.263374
vernier = 0.351165
Gmin = 1.82211e-008
vernier = 0.46822
Gmin = 6.698e-009
vernier = 0.624294
vernier = 0.312147
vernier = 0.416196
Gmin = 3.41832e-009
vernier = 0.554928
vernier = 0.739903
Gmin = 9.83126e-010
vernier = 0.986537
Gmin = 1.39755e-010
vernier = 1
Gmin = 1.50466e-011
Gmin = 1.61561e-012
Gmin = 1.73475e-013
Gmin = 0
Gmin stepping succeeded in finding the operating point.


ad: v(outd)=(40.0842dB,180°) at 1
acm: v(outcm)=(-115.348dB,0.0218752°) at 1
cmrr: (v(outd)/v(outcm))=(155.432dB,179.978°) at 1
outd_max: MAX(mag(v(outd)))=(40.0968dB,0°) FROM 0.01 TO 1e+007
bw1: v(outd)=(37.0858dB,95.5381°) at 443979


Date: Sun Nov 21 12:24:19 2021
Total elapsed time: 0.153 seconds.

tnom = 27
temp = 27
method = trap
totiter = 1144
traniter = 0
tranpoints = 0
accept = 0
rejected = 0
matrix size = 60
fillins = 51
solver = Normal
Matrix Compiler1:     309 opcodes
Matrix Compiler2: off  [0.4]/0.5/0.8

