Circuit: * C:\Users\40733\Downloads\Lab8_9_Instrumentatie_LTspice\Lab8_9_Instrumentatie_LTspice\AI_2AO_noninverting\AI_2AO_Noninv_Trans.asc

Vid1: Removing PWL point (0.86,0)
Vid1: Removing PWL point (1.72,0)
Vid1: Removing PWL point (2.58,0)
Vid1: Removing PWL point (3.44,0)
Direct Newton iteration failed to find .op point.  (Use ".option noopiter" to skip.)
Starting Gmin stepping
Gmin = 10
Gmin = 1.07374
Gmin = 0.115292
Gmin = 0.0123794
Gmin = 0.00132923
Gmin = 0.000142725
Gmin = 1.5325e-005
Gmin = 1.6455e-006
Gmin = 1.76685e-007
vernier = 0.5
vernier = 0.25
Gmin = 7.12293e-008
vernier = 0.125
vernier = 0.0625
vernier = 0.0833333
Gmin = 6.72064e-008
vernier = 0.111111
Gmin = 5.25045e-008
vernier = 0.148148
vernier = 0.197531
Gmin = 3.48093e-008
vernier = 0.263374
vernier = 0.351165
Gmin = 1.82211e-008
vernier = 0.46822
Gmin = 6.698e-009
vernier = 0.624294
vernier = 0.312147
vernier = 0.156073
vernier = 0.208098
Gmin = 5.25779e-009
vernier = 0.277464
Gmin = 2.91771e-009
vernier = 0.369952
vernier = 0.493269
Gmin = 1.13216e-009
vernier = 0.657691
vernier = 0.876922
Gmin = 2.62816e-010
vernier = 1
Gmin = 3.19649e-011
Gmin = 3.4322e-012
Gmin = 3.6853e-013
Gmin = 0
Gmin stepping succeeded in finding the operating point.


Date: Sun Nov 21 11:49:33 2021
Total elapsed time: 0.403 seconds.

tnom = 27
temp = 27
method = modified trap
totiter = 42084
traniter = 40804
tranpoints = 20343
accept = 14559
rejected = 5784
matrix size = 34
fillins = 33
solver = Normal
Thread vector: 4.8/3.5[3] 1.7/1.5[3] 0.6/0.9[1] 0.1/0.6[1]  2592/500
Matrix Compiler1: 3.49 KB object code size  0.7/0.3/[0.2]
Matrix Compiler2: off  [0.3]/0.4/0.4

