Circuit: * D:\Teaching\Materii\Cursuri\SAIC2023\proiect\P2\Noninverting_amplifier\GBW_neinversor.asc

Direct Newton iteration for .op point succeeded.
.step rf=10000
.step rf=20000
.step rf=50000
.step rf=100000

Date: Wed Oct 18 12:45:34 2023
Total elapsed time: 0.146 seconds.

tnom = 27
temp = 27
method = trap
totiter = 11
traniter = 0
tranpoints = 0
accept = 0
rejected = 0
matrix size = 69
fillins = 54
solver = Normal
Matrix Compiler1:     323 opcodes
Matrix Compiler2: 6.65 KB object code size
