Circuit: * C:\Users\andre\Projects\SCIA project\work\Etaj 2\Etaj2.asc

Direct Newton iteration failed to find .op point.  (Use ".option noopiter" to skip.)
Starting Gmin stepping
Gmin = 10
Gmin = 1.07374
Gmin = 0.115292
Gmin = 0.0123794
Gmin = 0.00132923
Gmin = 0.000142725
Gmin = 1.5325e-05
Gmin = 1.6455e-06
Gmin = 1.76685e-07
Gmin = 1.89714e-08
Gmin = 2.03704e-09
Gmin = 2.18725e-10
Gmin = 2.34854e-11
Gmin = 2.52173e-12
Gmin = 2.70769e-13
Gmin = 0
Gmin stepping succeeded in finding the operating point.

N-Period=1
Fourier components of V(out)
DC component:-0.13101

Harmonic	Frequency	 Fourier 	Normalized	 Phase  	Normalized
 Number 	  [Hz]   	Component	 Component	[degree]	Phase [deg]
    1   	 1.060e+3	 1.021e+0	 1.000e+0	  120.69°	    0.00°
    2   	 2.121e+3	 7.892e-5	 7.729e-5	   46.40°	  -74.29°
    3   	 3.182e+3	 9.064e-5	 8.877e-5	  174.73°	   54.05°
    4   	 4.242e+3	 2.864e-5	 2.805e-5	  -58.92°	 -179.61°
    5   	 5.302e+3	 5.733e-5	 5.615e-5	   12.49°	 -108.20°
    6   	 6.363e+3	 6.833e-5	 6.692e-5	  162.14°	   41.45°
    7   	 7.424e+3	 1.729e-5	 1.693e-5	 -149.93°	 -270.62°
    8   	 8.484e+3	 7.873e-5	 7.711e-5	   -0.72°	 -121.41°
    9   	 9.544e+3	 5.808e-5	 5.688e-5	  173.71°	   53.02°
Partial Harmonic Distortion: 0.017816%
Total Harmonic Distortion:   0.023477%



Date: Thu Jan  9 14:55:36 2025
Total elapsed time: 0.149 seconds.

tnom = 27
temp = 27
method = modified trap
totiter = 8558
traniter = 8034
tranpoints = 4018
accept = 4018
rejected = 0
matrix size = 17
fillins = 13
solver = Normal
Avg thread counts: 1.7/2.5/2.5/1.7
Matrix Compiler1: 1.54 KB object code size  0.4/0.2/[0.2]
Matrix Compiler2: off  [0.2]/0.2/0.2

