Circuit: * C:\Users\andre\Projects\SCIA project\work\Etaj 2\Etaj2.asc

Direct Newton iteration failed to find .op point.  (Use ".option noopiter" to skip.)
Starting Gmin stepping
Gmin = 10
Gmin = 1.07374
Gmin = 0.115292
Gmin = 0.0123794
Gmin = 0.00132923
Gmin = 0.000142725
Gmin = 1.5325e-05
Gmin = 1.6455e-06
Gmin = 1.76685e-07
Gmin = 1.89714e-08
Gmin = 2.03704e-09
Gmin = 2.18725e-10
Gmin = 2.34854e-11
Gmin = 2.52173e-12
Gmin = 2.70769e-13
Gmin = 0
Gmin stepping succeeded in finding the operating point.


Date: Tue Jan  7 12:20:01 2025
Total elapsed time: 1.346 seconds.

tnom = 27
temp = 27
method = modified trap
totiter = 2158
traniter = 1640
tranpoints = 821
accept = 821
rejected = 0
matrix size = 17
fillins = 13
solver = Normal
Avg thread counts: 4.6/7.9/7.9/4.6
Matrix Compiler1: 1.54 KB object code size  3.7/6.4/[2.9]
Matrix Compiler2: 1.84 KB object code size  2.0/2.1/[0.7]

