Circuit: * C:\Users\andre\OneDrive\Desktop\Proj Scia\SIAC---Project\work\Etaj 2\Etaj2.asc

Direct Newton iteration failed to find .op point.  (Use ".option noopiter" to skip.)
Starting Gmin stepping
Gmin = 10
Gmin = 1.07374
Gmin = 0.115292
Gmin = 0.0123794
Gmin = 0.00132923
Gmin = 0.000142725
Gmin = 1.5325e-05
Gmin = 1.6455e-06
Gmin = 1.76685e-07
Gmin = 1.89714e-08
Gmin = 2.03704e-09
Gmin = 2.18725e-10
Gmin = 2.34854e-11
Gmin = 2.52173e-12
Gmin = 2.70769e-13
Gmin = 0
Gmin stepping succeeded in finding the operating point.


Date: Thu Jan  9 11:29:21 2025
Total elapsed time: 0.034 seconds.

tnom = 27
temp = 27
method = trap
totiter = 524
traniter = 0
tranpoints = 0
accept = 0
rejected = 0
matrix size = 17
fillins = 13
solver = Normal
Avg thread counts: 10.5/0.0/16.0/9.6
Matrix Compiler1:      86 opcodes
Matrix Compiler2: off  [0.1]/0.2/0.1

