Circuit: * C:\Users\40733\Downloads\Lab8_9_Instrumentatie_LTspice\Lab8_9_Instrumentatie_LTspice\AI_V-I_Howland\AI_VI_Howland_Rout.asc

Direct Newton iteration failed to find .op point.  (Use ".option noopiter" to skip.)
Starting Gmin stepping
Gmin = 10
Gmin = 1.07374
Gmin = 0.115292
Gmin = 0.0123794
Gmin = 0.00132923
Gmin = 0.000142725
Gmin = 1.5325e-005
Gmin = 1.6455e-006
Gmin = 1.76685e-007
vernier = 0.5
vernier = 0.25
vernier = 0.125
vernier = 0.0625
vernier = 0.03125
vernier = 0.015625
vernier = 0.0078125
vernier = 0.00390625
Gmin = 1.41348e-007
vernier = 0.00195313
vernier = 0.00260417
Gmin = 1.40637e-007
vernier = 0.00347222
vernier = 0.00462963
Gmin = 1.39401e-007
vernier = 0.00617283
Gmin = 1.3748e-007
vernier = 0.00823044
vernier = 0.0109739
Gmin = 1.34315e-007
vernier = 0.0146319
vernier = 0.0195092
Gmin = 1.29421e-007
vernier = 0.0260122
vernier = 0.0130061
vernier = 0.00650306
vernier = 0.00325153
Gmin = 1.25292e-007
vernier = 0.00162576
vernier = 0.000812882
vernier = 0.000406441
Gmin = 0
Gmin stepping failed

Starting source stepping with srcstepmethod=0
Source Step = 3.0303%
vernier = 0.25
Source Step = 0.195313%
Source Step = 0.224905%
Source Step = 0.254498%
Source Step = 0.284091%
Source Step = 0.313684%
Source Step = 0.343277%
vernier = 0.00146484
Source Step = 0.384706%
Source Step = 0.429096%
Source Step = 0.473485%
Source Step = 0.517874%
Source Step = 0.562263%
vernier = 0.00219727
Source Step = 0.622189%
Source Step = 0.688772%
Source Step = 0.755356%
Source Step = 0.82194%
Source Step = 0.888524%
vernier = 0.0032959
Source Step = 0.975083%
Source Step = 1.07496%
Source Step = 1.17483%
Source Step = 1.27471%
Source Step = 1.37459%
vernier = 0.00494385
Source Step = 1.49943%
Source Step = 1.64924%
Source Step = 1.79906%
Source Step = 1.94887%
Source Step = 2.09868%
vernier = 0.00741577
Source Step = 2.27846%
Source Step = 2.50318%
Source Step = 2.7279%
Source Step = 2.95262%
Source Step = 3.17734%
vernier = 0.0111237
Source Step = 3.43577%
Source Step = 3.77285%
Source Step = 4.10993%
Source Step = 4.44701%
Source Step = 4.78409%
vernier = 0.0166855
Source Step = 5.15488%
Source Step = 5.6605%
Source Step = 6.16612%
Source Step = 6.67174%
Source Step = 7.17736%
vernier = 0.0250282
Source Step = 7.70827%
Source Step = 8.4667%
Source Step = 9.22513%
Source Step = 9.98356%
Source Step = 10.742%
Source Step = 11.5004%
vernier = 0.0375423
Source Step = 12.6381%
Source Step = 13.7757%
Source Step = 14.9134%
Source Step = 16.051%
Source Step = 17.1887%
vernier = 0.0563135
Source Step = 18.8382%
Source Step = 20.5447%
Source Step = 22.2512%
Source Step = 23.9577%
Source Step = 25.6641%
vernier = 0.0844703
Source Step = 28.0532%
Source Step = 30.6129%
Source Step = 33.1726%
Source Step = 35.7323%
Source Step = 38.292%
vernier = 0.126705
Source Step = 41.7476%
Source Step = 45.5872%
Source Step = 49.4267%
Source Step = 53.2663%
Source Step = 57.1058%
vernier = 0.190058
Source Step = 62.0973%
Source Step = 67.8566%
Source Step = 73.6159%
Source Step = 79.3753%
Source Step = 85.1346%
vernier = 0.285087
Source Step = 92.3338%
Source Step = 98.813%
Source Step = 100%
Source stepping succeeded in finding the operating point.




Date: Sun Nov 21 12:16:17 2021
Total elapsed time: 0.778 seconds.

tnom = 27
temp = 27
method = trap
totiter = 66734
traniter = 0
tranpoints = 0
accept = 0
rejected = 0
matrix size = 43
fillins = 88
solver = Normal
Thread vector: 8.7/5.4[4] 0.0/0.0[0] 1.0/0.7[4] 0.2/0.6[1]  2592/500
Matrix Compiler1:     456 opcodes  1.3/0.6/[0.3]
Matrix Compiler2: 6.67 KB object code size  0.5/0.6/[0.3]

