Circuit: * C:\Users\40733\Downloads\Lab8_9_Instrumentatie_LTspice\Lab8_9_Instrumentatie_LTspice\AI_V-I_Howland\AI_VI_Howland_Gm.asc

Direct Newton iteration failed to find .op point.  (Use ".option noopiter" to skip.)
Starting Gmin stepping
Gmin = 10
Gmin = 1.07374
Gmin = 0.115292
Gmin = 0.0123794
Gmin = 0.00132923
Gmin = 0.000142725
Gmin = 1.5325e-005
Gmin = 1.6455e-006
Gmin = 1.76685e-007
vernier = 0.5
vernier = 0.25
vernier = 0.125
vernier = 0.0625
vernier = 0.03125
vernier = 0.015625
vernier = 0.0078125
vernier = 0.00390625
Gmin = 1.41348e-007
vernier = 0.00520833
Gmin = 1.39747e-007
vernier = 0.00694444
vernier = 0.00925925
Gmin = 1.37166e-007
vernier = 0.0123457
vernier = 0.0164609
Gmin = 1.33174e-007
vernier = 0.0219478
Gmin = 1.26946e-007
vernier = 0.0292638
vernier = 0.0390184
Gmin = 1.17382e-007
vernier = 0.0520245
vernier = 0.0693659
Gmin = 1.03709e-007
vernier = 0.0924879
Gmin = 8.48876e-008
vernier = 0.123317
vernier = 0.164423
Gmin = 6.12791e-008
vernier = 0.21923
vernier = 0.292307
Gmin = 3.67415e-008
vernier = 0.389743
Gmin = 1.62221e-008
vernier = 0.519657
vernier = 0.692876
Gmin = 4.39864e-009
vernier = 0.923834
vernier = 1
Gmin = 6.26341e-010
Gmin = 6.72529e-011
Gmin = 7.22122e-012
Gmin = 7.75373e-013
Gmin = 0
Gmin = 0
Gmin stepping succeeded in finding the operating point.

Early termination of direct N-R iteration.
Direct Newton iteration failed to find .op point.  (Use ".option noopiter" to skip.)
Starting Gmin stepping
Gmin = 10
Gmin = 1.07374
Gmin = 0.115292
Gmin = 0.0123794
Gmin = 0.00132923
Gmin = 0.000142725
Gmin = 1.5325e-005
Gmin = 1.6455e-006
Gmin = 1.76685e-007
vernier = 0.5
vernier = 0.25
vernier = 0.125
vernier = 0.0625
vernier = 0.03125
Gmin = 1.38086e-007
vernier = 0.0416667
vernier = 0.0208333
vernier = 0.0104167
vernier = 0.00520833
vernier = 0.00260417
Gmin = 1.31792e-007
vernier = 0.00130208
vernier = 0.000651042
vernier = 0.000488281
Gmin = 0
Gmin stepping failed

Starting source stepping with srcstepmethod=0
Source Step = 3.0303%
vernier = 0.25
Source Step = 3.40909%
Source Step = 4.26136%
Source Step = 4.73485%
Source Step = 5.20833%
Source Step = 5.68182%
Source Step = 5.85937%
Source Step = 5.97775%
Source Step = 6.09612%
Source Step = 6.21449%
Source Step = 6.33286%
vernier = 0.00585938
Source Step = 6.48674%
Source Step = 6.6643%
Source Step = 6.84186%
Source Step = 7.01941%
Source Step = 7.19697%
vernier = 0.00878906
Source Step = 7.41892%
Source Step = 7.68525%
Source Step = 7.95159%
Source Step = 8.21792%
Source Step = 8.48426%
vernier = 0.0131836
Source Step = 8.80386%
Source Step = 9.20336%
Source Step = 9.60286%
Source Step = 10.0024%
Source Step = 10.4019%
vernier = 0.0197754
Source Step = 10.8613%
Source Step = 11.4606%
Source Step = 12.0598%
Source Step = 12.6591%
Source Step = 13.2583%
vernier = 0.0296631
Source Step = 13.9175%
Source Step = 14.8164%
Source Step = 15.7153%
Source Step = 16.6141%
Source Step = 17.513%
vernier = 0.0444946
Source Step = 18.4568%
Source Step = 19.8052%
Source Step = 21.1535%
Source Step = 22.5018%
Source Step = 23.8501%
Source Step = 25.1985%
vernier = 0.0667419
Source Step = 27.2209%
Source Step = 29.2434%
Source Step = 31.2659%
Source Step = 33.2884%
Source Step = 35.3109%
vernier = 0.100113
Source Step = 38.2435%
Source Step = 41.2772%
Source Step = 44.3109%
Source Step = 47.3446%
Source Step = 50.3784%
vernier = 0.150169
Source Step = 54.6256%
Source Step = 59.1762%
Source Step = 63.7268%
Source Step = 68.2773%
Source Step = 72.8279%
vernier = 0.225254
Source Step = 78.9712%
Source Step = 85.7971%
Source Step = 92.623%
Source Step = 99.4489%
Source stepping succeeded in finding the operating point.




Date: Sun Nov 21 12:11:35 2021
Total elapsed time: 0.273 seconds.

tnom = 27
temp = 27
method = trap
totiter = 6544
traniter = 0
tranpoints = 0
accept = 0
rejected = 0
matrix size = 49
fillins = 100
solver = Normal
Thread vector: 7.3/4.8[4] 0.0/0.0[0] 1.1/0.7[4] 0.1/0.7[1]  2592/500
Matrix Compiler1: 10.17 KB object code size  1.5/0.7/[0.2]
Matrix Compiler2: 7.51 KB object code size  0.7/0.6/[0.2]

